Bezafibrate

CAS rn = 41859-67-0
 25 26  0     0  0            999 V2000
   -3.0000   -4.0981    0.0000 C   0  0  0  0  0  0           0  0  0
   -3.0000   -1.0981    0.0000 C   0  0  0  0  0  0           0  0  0
    1.5000    0.0000    0.0000 C   0  0  0  0  0  0           0  0  0
   -0.7500    1.2990    0.0000 C   0  0  0  0  0  0           0  0  0
    5.2500    6.4952    0.0000 C   0  0  0  0  0  0           0  0  0
    7.5000    5.1962    0.0000 C   0  0  0  0  0  0           0  0  0
    6.0000    7.7942    0.0000 C   0  0  0  0  0  0           0  0  0
    8.2500    6.4952    0.0000 C   0  0  0  0  0  0           0  0  0
    0.7500   -1.2990    0.0000 C   0  0  0  0  0  0           0  0  0
   -1.5000    0.0000    0.0000 C   0  0  0  0  0  0           0  0  0
    1.5000    2.5981    0.0000 C   0  0  0  0  0  0           0  0  0
    3.0000    2.5981    0.0000 C   0  0  0  0  0  0           0  0  0
    0.7500    1.2990    0.0000 C   0  0  0  0  0  0           0  0  0
    6.0000    5.1962    0.0000 C   0  0  0  0  0  0           0  0  0
    7.5000    7.7942    0.0000 C   0  0  0  0  0  0           0  0  0
   -0.7500   -1.2990    0.0000 C   0  0  0  0  0  0           0  0  0
    5.2500    3.8971    0.0000 C   0  0  0  0  0  0           0  0  0
   -4.5000   -2.5981    0.0000 C   0  0  0  0  0  0           0  0  0
   -3.0000   -2.5981    0.0000 C   0  0  0  0  0  0           0  0  0
    8.2500    9.0933    0.0000 Cl  0  0  0  0  0  0           0  0  0
    3.7500    3.8971    0.0000 N   0  0  0  0  0  0           0  0  0
    6.0000    2.5981    0.0000 O   0  0  0  0  0  0           0  0  0
   -5.2500   -1.2990    0.0000 O   0  0  0  0  0  0           0  0  0
   -5.2500   -3.8971    0.0000 O   0  0  0  0  0  0           0  0  0
   -1.5000   -2.5981    0.0000 O   0  0  0  0  0  0           0  0  0
  1 19  1  0     0  0
  2 19  1  0     0  0
  3  9  2  0     0  0
  3 13  1  0     0  0
  4 10  1  0     0  0
  4 13  2  0     0  0
  5  7  2  0     0  0
  5 14  1  0     0  0
  6  8  1  0     0  0
  6 14  2  0     0  0
  7 15  1  0     0  0
  8 15  2  0     0  0
  9 16  1  0     0  0
 10 16  2  0     0  0
 11 12  1  0     0  0
 11 13  1  0     0  0
 12 21  1  0     0  0
 14 17  1  0     0  0
 15 20  1  0     0  0
 16 25  1  0     0  0
 17 21  1  0     0  0
 17 22  2  0     0  0
 18 19  1  0     0  0
 18 23  2  0     0  0
 18 24  1  0     0  0
 19 25  1  0     0  0
M  END

>  <NAME>
Bezafibrate

>  <ION MODE>
P

>  <INSTRUMENT>
LC-ESI-QTOF TripleTOF 5600 SCIEX

>  <COLLISION ENERGY>
40

>  <KINETIC ENERGY>


>  <MSMS FRAGMENTATION>
CID

>  <PRECURSOR M/Z>
362.1154

>  <CASNO>
41859-67-0

>  <MOLECULAR WEIGHT>
0

>  <MONOISOTOPIC MASS>
361.1081

>  <FORMULA>
C19H20ClNO4

>  <COLLISION ENERGY SPREAD>
0

>  <ION SOURCE>
ESI

>  <SCAN TYPE>


>  <CAD GAS TYPE>


>  <CAD GAS VALUE>


>  <SPECTRUM CREATED DATE>
2017-05-04T16:17:44.0000000

>  <CONTRIBUTOR>
Ole Lessmann; Kevin S. Jewell; Björn Ehlig; Arne Wick

>  <REGION-NAMES>
Bezafibrate
Europe
True

>  <COMMENT>


>  <LIBRARYNAME>

>  <NUM PEAKS>
11

>  <MASS SPECTRAL PEAKS>
77.041499999999999 8.5999999999999996
87.046300000000002 6.9000000000000004
91.055199999999999 9.1999999999999993
93.071299999999994 14.199999999999999
103.05459999999999 10.4
110.9996 30.300000000000001
121.0654 255.30000000000001
138.9949 487.80000000000001
161.0959 37.899999999999999
276.07729999999998 5.7000000000000002
316.1087 5.4000000000000004

$$$$
3,6-Dimethyl-4-octyne-3,6-diol

CAS rn = 78-66-0
 12 11  0     0  0            999 V2000
    0.0000    0.0000    0.0000 C   0  0  0  0  0  0           0  0  0
    1.6471   -6.1471    0.0000 C   0  0  0  0  0  0           0  0  0
    3.8971   -0.7500    0.0000 C   0  0  0  0  0  0           0  0  0
   -0.9510   -3.1471    0.0000 C   0  0  0  0  0  0           0  0  0
    1.2990    0.7500    0.0000 C   0  0  0  0  0  0           0  0  0
    1.6471   -4.6471    0.0000 C   0  0  0  0  0  0           0  0  0
    1.8481   -1.2990    0.0000 C   0  0  0  0  0  0           0  0  0
    1.0981   -2.5981    0.0000 C   0  0  0  0  0  0           0  0  0
    2.5981    0.0000    0.0000 C   0  0  0  0  0  0           0  0  0
    0.3481   -3.8971    0.0000 C   0  0  0  0  0  0           0  0  0
    3.3481    1.2990    0.0000 O   0  0  0  0  0  0           0  0  0
   -0.4019   -5.1962    0.0000 O   0  0  0  0  0  0           0  0  0
  1  5  1  0     0  0
  2  6  1  0     0  0
  3  9  1  0     0  0
  4 10  1  0     0  0
  5  9  1  0     0  0
  6 10  1  0     0  0
  7  8  3  0     0  0
  7  9  1  0     0  0
  8 10  1  0     0  0
  9 11  1  0     0  0
 10 12  1  0     0  0
M  END

>  <NAME>
3,6-Dimethyl-4-octyne-3,6-diol

>  <ION MODE>
P

>  <INSTRUMENT>
LC-ESI-QTOF TripleTOF 6600 SCIEX

>  <COLLISION ENERGY>
40

>  <KINETIC ENERGY>


>  <MSMS FRAGMENTATION>
CID

>  <PRECURSOR M/Z>
188.1686

>  <CASNO>
78-66-0

>  <MOLECULAR WEIGHT>
0

>  <MONOISOTOPIC MASS>
170.1307

>  <FORMULA>
C10H18O2

>  <COLLISION ENERGY SPREAD>
0

>  <ION SOURCE>
ESI

>  <SCAN TYPE>


>  <CAD GAS TYPE>


>  <CAD GAS VALUE>


>  <SPECTRUM CREATED DATE>
2025-04-22T13:55:15.0000000

>  <CONTRIBUTOR>
Ole Lessmann; Kevin S. Jewell; Björn Ehlig; Arne Wick

>  <REGION-NAMES>
3,6-Dimethyl-4-octyne-3,6-diol
Europe
True

>  <COMMENT>


>  <LIBRARYNAME>

>  <NUM PEAKS>
12

>  <MASS SPECTRAL PEAKS>
39.022500000000001 2.2000000000000002
41.037799999999997 5.0999999999999996
43.017699999999998 11.6
55.053800000000003 3.1000000000000001
65.037899999999993 1.3
67.052999999999997 1.8999999999999999
77.037599999999998 10.1
79.053399999999996 4.7999999999999998
91.053299999999993 20.699999999999999
105.0693 8.5999999999999996
109.0639 7.2000000000000002
123.0795 1.5

$$$$
